Version 4
SHEET 1 1236 696
WIRE -464 -272 -640 -272
WIRE 720 -256 544 -256
WIRE -640 -208 -640 -272
WIRE 544 -192 544 -256
WIRE -464 -112 -464 -272
WIRE 720 -96 720 -256
WIRE -464 16 -464 -32
WIRE -320 16 -464 16
WIRE -112 16 -320 16
WIRE 720 48 720 -16
WIRE 960 48 720 48
WIRE 1168 48 960 48
WIRE -464 80 -464 16
WIRE -320 80 -320 16
WIRE -112 80 -112 16
WIRE 720 112 720 48
WIRE 960 112 960 48
WIRE 1168 112 1168 48
WIRE -464 208 -464 160
WIRE 720 240 720 192
WIRE -320 256 -320 160
WIRE -112 256 -112 160
WIRE 960 272 960 192
WIRE 1168 272 1168 192
WIRE -320 432 -320 336
WIRE -112 432 -112 336
WIRE 960 448 960 352
WIRE 1168 448 1168 352
WIRE -320 592 -320 512
WIRE -208 592 -320 592
WIRE -112 592 -112 512
WIRE -112 592 -208 592
WIRE 960 608 960 528
WIRE 1072 608 960 608
WIRE 1168 608 1168 528
WIRE 1168 608 1072 608
WIRE -208 640 -208 592
WIRE 1072 656 1072 608
FLAG -208 640 0
FLAG -464 208 0
FLAG -640 -128 0
FLAG 1072 656 0
FLAG 720 240 0
FLAG 544 -112 0
SYMBOL res -336 64 R0
SYMATTR InstName R1
SYMATTR Value 100
SYMBOL res -128 64 R0
SYMATTR InstName R2
SYMATTR Value 100
SYMBOL res -336 240 R0
SYMATTR InstName R3
SYMATTR Value 680
SYMBOL res -128 240 R0
SYMATTR InstName R4
SYMATTR Value 680
SYMBOL res -480 64 R0
SYMATTR InstName R5
SYMATTR Value 1k
SYMBOL res -480 -128 R0
SYMATTR InstName R6
SYMATTR Value 1k
SYMBOL voltage -640 -224 R0
WINDOW 123 0 0 Left 0
WINDOW 39 0 0 Left 0
SYMATTR InstName V1
SYMATTR Value 8
SYMBOL res -336 416 R0
SYMATTR InstName R7
SYMATTR Value {left}
SYMBOL res -128 416 R0
SYMATTR InstName R8
SYMATTR Value 50000-{left}
SYMBOL res 944 96 R0
SYMATTR InstName R9
SYMATTR Value 100
SYMBOL res 1152 96 R0
SYMATTR InstName R10
SYMATTR Value 100
SYMBOL res 944 256 R0
SYMATTR InstName R11
SYMATTR Value 680
SYMBOL res 1152 256 R0
SYMATTR InstName R12
SYMATTR Value 680
SYMBOL res 704 96 R0
SYMATTR InstName R13
SYMATTR Value 1k
SYMBOL res 704 -112 R0
SYMATTR InstName R14
SYMATTR Value 1k
SYMBOL voltage 544 -208 R0
WINDOW 123 0 0 Left 0
WINDOW 39 0 0 Left 0
SYMATTR InstName V2
SYMATTR Value 8
SYMBOL res 944 432 R0
SYMATTR InstName R15
SYMATTR Value 1k
SYMBOL res 1152 432 R0
SYMATTR InstName R16
SYMATTR Value 49k
TEXT -672 648 Left 2 !.tran 1
TEXT -696 680 Left 2 !.step param left 0.1k 50k 10k
