Version 4
SHEET 1 2356 776
WIRE 672 -1744 528 -1744
WIRE 672 -1664 672 -1744
WIRE 528 -1648 528 -1744
WIRE 672 -1536 672 -1584
WIRE 880 -1536 672 -1536
WIRE 1152 -1536 960 -1536
WIRE 1152 -1488 1152 -1536
WIRE 1472 -1488 1232 -1488
WIRE 1712 -1488 1472 -1488
WIRE 1888 -1488 1792 -1488
WIRE 2224 -1488 1952 -1488
WIRE 672 -1472 528 -1472
WIRE 1232 -1440 1232 -1488
WIRE 1472 -1408 1472 -1488
WIRE 2224 -1408 2224 -1488
WIRE 672 -1392 672 -1472
WIRE 1152 -1392 1152 -1408
WIRE 1152 -1392 1008 -1392
WIRE 528 -1376 528 -1472
WIRE 1152 -1376 1152 -1392
WIRE 1008 -1344 1008 -1392
WIRE 1232 -1280 1232 -1360
WIRE 1472 -1280 1472 -1344
WIRE 672 -1264 672 -1312
WIRE 864 -1264 672 -1264
WIRE 1152 -1264 1152 -1296
WIRE 1152 -1264 944 -1264
WIRE 2224 -1264 2224 -1328
WIRE 704 -1056 560 -1056
WIRE 704 -976 704 -1056
WIRE 560 -960 560 -1056
WIRE 704 -848 704 -896
WIRE 912 -848 704 -848
WIRE 1184 -848 992 -848
WIRE 1184 -800 1184 -848
WIRE 1504 -800 1264 -800
WIRE 1744 -800 1504 -800
WIRE 1920 -800 1824 -800
WIRE 2256 -800 1984 -800
WIRE 704 -784 560 -784
WIRE 1264 -752 1264 -800
WIRE 1504 -720 1504 -800
WIRE 2256 -720 2256 -800
WIRE 704 -704 704 -784
WIRE 1184 -704 1184 -720
WIRE 1184 -704 1040 -704
WIRE 560 -688 560 -784
WIRE 1184 -688 1184 -704
WIRE 1040 -656 1040 -704
WIRE 1264 -592 1264 -672
WIRE 1504 -592 1504 -656
WIRE 704 -576 704 -624
WIRE 896 -576 704 -576
WIRE 1184 -576 1184 -608
WIRE 1184 -576 976 -576
WIRE 2256 -576 2256 -640
WIRE 736 -176 592 -176
WIRE 736 -96 736 -176
WIRE 592 -80 592 -176
WIRE 736 32 736 -16
WIRE 944 32 736 32
WIRE 1216 32 1024 32
WIRE 1216 80 1216 32
WIRE 1536 80 1296 80
WIRE 1776 80 1536 80
WIRE 1952 80 1856 80
WIRE 2288 80 2016 80
WIRE 736 96 592 96
WIRE 1296 128 1296 80
WIRE 1536 160 1536 80
WIRE 2288 160 2288 80
WIRE 736 176 736 96
WIRE 1216 176 1216 160
WIRE 1216 176 1072 176
WIRE 592 192 592 96
WIRE 1216 192 1216 176
WIRE 1072 224 1072 176
WIRE 1296 288 1296 208
WIRE 1536 288 1536 224
WIRE 736 304 736 256
WIRE 928 304 736 304
WIRE 1216 304 1216 272
WIRE 1216 304 1008 304
WIRE 2288 304 2288 240
FLAG 592 -80 0
FLAG 1072 224 0
FLAG 592 192 0
FLAG 1296 288 0
FLAG 1536 288 0
FLAG 2288 304 0
FLAG 560 -960 0
FLAG 1040 -656 0
FLAG 560 -688 0
FLAG 1264 -592 0
FLAG 1504 -592 0
FLAG 2256 -576 0
FLAG 528 -1648 0
FLAG 1008 -1344 0
FLAG 528 -1376 0
FLAG 1232 -1280 0
FLAG 1472 -1280 0
FLAG 2224 -1264 0
SYMBOL ind2 1312 112 M0
WINDOW 0 -78 50 Left 2
WINDOW 3 -117 74 Left 2
SYMATTR InstName L10
SYMATTR Value 1.76µH
SYMATTR Type ind
SYMBOL ind2 1200 176 R0
WINDOW 0 -66 58 Left 2
WINDOW 3 -80 86 Left 2
SYMATTR InstName L11
SYMATTR Value .44µH
SYMATTR Type ind
SYMBOL ind2 1200 64 R0
WINDOW 0 -68 43 Left 2
WINDOW 3 -82 72 Left 2
SYMATTR InstName L12
SYMATTR Value .44µH
SYMATTR Type ind
SYMBOL voltage 736 0 R180
WINDOW 123 24 96 Left 2
WINDOW 39 24 124 Left 2
WINDOW 3 24 68 Left 2
SYMATTR Value2 AC 1
SYMATTR SpiceLine Rser=.1
SYMATTR Value SINE(0 1 14000000 0 0 0)
SYMATTR InstName V4
SYMBOL voltage 736 272 R180
WINDOW 123 24 96 Left 2
WINDOW 39 24 124 Left 2
WINDOW 3 24 -12 Left 2
SYMATTR Value2 AC 1
SYMATTR SpiceLine Rser=.1
SYMATTR Value SINE(0 1 14000000 0 0 180)
SYMATTR InstName V1
SYMBOL cap 1520 160 R0
SYMATTR InstName C2
SYMATTR Value 82p
SYMBOL res 2272 144 R0
SYMATTR InstName R1
SYMATTR Value 50
SYMBOL ind2 1872 96 M270
WINDOW 0 32 56 VTop 2
WINDOW 3 4 56 VBottom 2
SYMATTR InstName L1
SYMATTR Value 1.76µH
SYMATTR Type ind
SYMBOL cap 2016 64 R90
WINDOW 0 0 32 VBottom 2
WINDOW 3 32 32 VTop 2
SYMATTR InstName C3
SYMATTR Value 82p
SYMBOL res 1040 16 R90
WINDOW 0 0 56 VBottom 2
WINDOW 3 32 56 VTop 2
SYMATTR InstName R2
SYMATTR Value 50
SYMBOL res 1024 288 R90
WINDOW 0 0 56 VBottom 2
WINDOW 3 32 56 VTop 2
SYMATTR InstName R3
SYMATTR Value 50
SYMBOL ind2 1280 -768 M0
WINDOW 0 -78 50 Left 2
WINDOW 3 -117 74 Left 2
SYMATTR InstName L2
SYMATTR Value 176µH
SYMATTR Type ind
SYMBOL ind2 1168 -704 R0
WINDOW 0 -66 58 Left 2
WINDOW 3 -80 86 Left 2
SYMATTR InstName L3
SYMATTR Value 44µH
SYMATTR Type ind
SYMBOL ind2 1168 -816 R0
WINDOW 0 -68 43 Left 2
WINDOW 3 -82 72 Left 2
SYMATTR InstName L4
SYMATTR Value 44µH
SYMATTR Type ind
SYMBOL voltage 704 -880 R180
WINDOW 123 24 96 Left 2
WINDOW 39 24 124 Left 2
WINDOW 3 24 68 Left 2
SYMATTR Value2 AC 1
SYMATTR SpiceLine Rser=.1
SYMATTR Value SINE(0 1 14000000 0 0 0)
SYMATTR InstName V2
SYMBOL voltage 704 -608 R180
WINDOW 123 24 96 Left 2
WINDOW 39 24 124 Left 2
WINDOW 3 24 -12 Left 2
SYMATTR Value2 AC 1
SYMATTR SpiceLine Rser=.1
SYMATTR Value SINE(0 1 14000000 0 0 180)
SYMATTR InstName V3
SYMBOL cap 1488 -720 R0
SYMATTR InstName C1
SYMATTR Value 82p
SYMBOL res 2240 -736 R0
SYMATTR InstName R4
SYMATTR Value 50
SYMBOL ind2 1840 -784 M270
WINDOW 0 32 56 VTop 2
WINDOW 3 4 56 VBottom 2
SYMATTR InstName L5
SYMATTR Value 1.76µH
SYMATTR Type ind
SYMBOL cap 1984 -816 R90
WINDOW 0 0 32 VBottom 2
WINDOW 3 32 32 VTop 2
SYMATTR InstName C4
SYMATTR Value 82p
SYMBOL res 1008 -864 R90
WINDOW 0 0 56 VBottom 2
WINDOW 3 32 56 VTop 2
SYMATTR InstName R5
SYMATTR Value 50
SYMBOL res 992 -592 R90
WINDOW 0 0 56 VBottom 2
WINDOW 3 32 56 VTop 2
SYMATTR InstName R6
SYMATTR Value 50
SYMBOL ind2 1248 -1456 M0
WINDOW 0 -78 50 Left 2
WINDOW 3 -117 74 Left 2
SYMATTR InstName L6
SYMATTR Value 176µH
SYMATTR Type ind
SYMBOL ind2 1136 -1392 R0
WINDOW 0 -66 58 Left 2
WINDOW 3 -80 86 Left 2
SYMATTR InstName L7
SYMATTR Value 176µH
SYMATTR Type ind
SYMBOL ind2 1136 -1504 R0
WINDOW 0 -68 43 Left 2
WINDOW 3 -82 72 Left 2
SYMATTR InstName L8
SYMATTR Value 176µH
SYMATTR Type ind
SYMBOL voltage 672 -1568 R180
WINDOW 123 24 96 Left 2
WINDOW 39 24 124 Left 2
WINDOW 3 24 68 Left 2
SYMATTR Value2 AC 1
SYMATTR SpiceLine Rser=.1
SYMATTR Value SINE(0 1 14000000 0 0 0)
SYMATTR InstName V5
SYMBOL voltage 672 -1296 R180
WINDOW 123 24 96 Left 2
WINDOW 39 24 124 Left 2
WINDOW 3 24 -12 Left 2
SYMATTR Value2 AC 1
SYMATTR SpiceLine Rser=.1
SYMATTR Value SINE(0 1 14000000 0 0 180)
SYMATTR InstName V6
SYMBOL cap 1456 -1408 R0
SYMATTR InstName C5
SYMATTR Value 82p
SYMBOL res 2208 -1424 R0
SYMATTR InstName R7
SYMATTR Value 50
SYMBOL ind2 1808 -1472 M270
WINDOW 0 32 56 VTop 2
WINDOW 3 4 56 VBottom 2
SYMATTR InstName L9
SYMATTR Value 1.76µH
SYMATTR Type ind
SYMBOL cap 1952 -1504 R90
WINDOW 0 0 32 VBottom 2
WINDOW 3 32 32 VTop 2
SYMATTR InstName C6
SYMATTR Value 82p
SYMBOL res 976 -1552 R90
WINDOW 0 0 56 VBottom 2
WINDOW 3 32 56 VTop 2
SYMATTR InstName R8
SYMATTR Value 50
SYMBOL res 960 -1280 R90
WINDOW 0 0 56 VBottom 2
WINDOW 3 32 56 VTop 2
SYMATTR InstName R9
SYMATTR Value 50
TEXT 1224 328 Right 2 !K3 L10 L11 L12 1
TEXT 392 354 Left 2 !.tran 0 .000004 .0000018
TEXT 400 440 Left 2 !;ac dec 101 2Meg 18Meg
TEXT 1192 -552 Right 2 !K4 L2 L3 L4 1
TEXT 1160 -1240 Right 2 !K5 L6 L7 L8 1
