Version 4
SHEET 1 880 680
WIRE -80 -64 -160 -64
WIRE 112 -64 -80 -64
WIRE 496 -64 416 -64
WIRE 688 -64 496 -64
WIRE -160 -16 -160 -64
WIRE 416 -16 416 -64
WIRE 112 80 112 -64
WIRE 112 80 32 80
WIRE 176 80 112 80
WIRE 688 80 688 -64
WIRE 688 80 608 80
WIRE 752 80 688 80
WIRE 32 144 32 80
WIRE 176 144 176 80
WIRE 608 144 608 80
WIRE 752 144 752 80
WIRE -80 176 -80 -64
WIRE 496 176 496 -64
WIRE 32 288 32 224
WIRE 176 288 176 224
WIRE 608 288 608 224
WIRE 752 288 752 224
WIRE -80 304 -80 256
WIRE 496 304 496 256
WIRE 32 400 32 368
WIRE 112 400 32 400
WIRE 176 400 176 368
WIRE 176 400 112 400
WIRE 608 400 608 368
WIRE 688 400 608 400
WIRE 752 400 752 368
WIRE 752 400 688 400
WIRE 112 432 112 400
WIRE 688 432 688 400
FLAG -160 64 0
FLAG 112 432 0
FLAG -80 304 0
FLAG 416 64 0
FLAG 688 432 0
FLAG 496 304 0
SYMBOL res 16 128 R0
SYMATTR InstName R1
SYMATTR Value 100
SYMBOL res 160 128 R0
SYMATTR InstName R2
SYMATTR Value 100
SYMBOL res 16 272 R0
SYMATTR InstName R3
SYMATTR Value 25k
SYMBOL res 160 272 R0
SYMATTR InstName R4
SYMATTR Value 25k
SYMBOL voltage -160 -32 R0
WINDOW 123 0 0 Left 0
WINDOW 39 0 0 Left 0
SYMATTR InstName V1
SYMATTR Value 5
SYMBOL res -96 160 R0
SYMATTR InstName R5
SYMATTR Value 1k
SYMBOL res 592 128 R0
SYMATTR InstName R6
SYMATTR Value 100
SYMBOL res 736 128 R0
SYMATTR InstName R7
SYMATTR Value 100
SYMBOL res 592 272 R0
SYMATTR InstName R8
SYMATTR Value 0
SYMBOL res 736 272 R0
SYMATTR InstName R9
SYMATTR Value 50k
SYMBOL voltage 416 -32 R0
WINDOW 123 0 0 Left 0
WINDOW 39 0 0 Left 0
SYMATTR InstName V2
SYMATTR Value 5
SYMBOL res 480 160 R0
SYMATTR InstName R10
SYMATTR Value 1k
TEXT -194 456 Left 2 !.tran 1
