Version 4
SHEET 1 1200 400
WIRE 0 0 0 64
WIRE 0 144 0 208
WIRE 0 0 208 0
WIRE 208 0 208 64
WIRE 208 128 208 208
WIRE 208 0 272 0
WIRE 352 0 416 0
WIRE 416 0 416 64
WIRE 416 128 416 208
WIRE 416 0 480 0
WIRE 560 0 624 0
WIRE 624 0 624 64
WIRE 624 128 624 208
WIRE 624 0 832 0
WIRE 832 0 832 64
WIRE 832 144 832 208
FLAG 0 208 0
FLAG 208 208 0
FLAG 416 208 0
FLAG 624 208 0
FLAG 832 208 0
SYMBOL voltage 0 48 R0
WINDOW 123 40 48 Left 2
WINDOW 39 39 77 Left 2
SYMATTR InstName V1
SYMATTR Value ""
SYMATTR Value2 AC 1 0
SYMATTR SpiceLine Rser=50.00
SYMBOL cap 192 64 R0
SYMATTR InstName C1
SYMATTR Value 220.0p
SYMBOL ind 256 16 R270
SYMATTR InstName L2
SYMATTR Value 680.0n
WINDOW 0 32 56 VTop 2
WINDOW 3 5 56 VBottom 2
SYMBOL cap 400 64 R0
SYMATTR InstName C3
SYMATTR Value 390.0p
SYMBOL ind 464 16 R270
SYMATTR InstName L4
SYMATTR Value 680.0n
WINDOW 0 32 56 VTop 2
WINDOW 3 5 56 VBottom 2
SYMBOL cap 608 64 R0
SYMATTR InstName C5
SYMATTR Value 220.0p
SYMBOL res 816 48 R0
SYMATTR InstName RL
SYMATTR Value 50
TEXT 16 -288 Left 2 !.ac dec 1001 6.000Meg 93.75Meg
TEXT 16 -240 Left 2 !.net I(RL) V1
TEXT 480 -288 Left 2 ;5th Order Chebyshev Lowpass\nShunt First\nCutoff Frequency = 15 MHz\nPassband Ripple = .1 dB\n\nrf-tools.com | Oct 18 2021 13:42
