Version 4
SHEET 1 1732 1476
WIRE -1408 -112 -1472 -112
WIRE -1280 -112 -1344 -112
WIRE -1088 -112 -1152 -112
WIRE -960 -112 -1024 -112
WIRE 208 0 0 0
WIRE 272 0 208 0
WIRE 416 0 352 0
WIRE 480 0 416 0
WIRE 624 0 560 0
WIRE 832 0 624 0
WIRE -1552 32 -1936 32
WIRE -1472 32 -1472 -112
WIRE -1472 32 -1552 32
WIRE -1424 32 -1472 32
WIRE -1280 32 -1280 -112
WIRE -1280 32 -1344 32
WIRE -1216 32 -1280 32
WIRE -1152 32 -1152 -112
WIRE -1152 32 -1216 32
WIRE -1104 32 -1152 32
WIRE -960 32 -960 -112
WIRE -960 32 -1024 32
WIRE -896 32 -960 32
WIRE -736 32 -896 32
WIRE 0 64 0 0
WIRE 208 64 208 0
WIRE 416 64 416 0
WIRE 624 64 624 0
WIRE 832 64 832 0
WIRE -1936 96 -1936 32
WIRE -736 96 -736 32
WIRE -1552 112 -1552 32
WIRE -1216 112 -1216 32
WIRE -896 112 -896 32
WIRE 0 208 0 144
WIRE 208 208 208 128
WIRE 416 208 416 128
WIRE 624 208 624 128
WIRE 832 208 832 144
WIRE -1936 240 -1936 176
WIRE -736 240 -736 176
WIRE -1408 496 -1472 496
WIRE -1280 496 -1344 496
WIRE -1088 496 -1152 496
WIRE -960 496 -1024 496
WIRE 48 528 -256 528
WIRE 208 528 48 528
WIRE 288 528 208 528
WIRE 480 528 352 528
WIRE 624 528 560 528
WIRE 864 528 624 528
WIRE 1104 528 864 528
WIRE -256 592 -256 528
WIRE 48 592 48 528
WIRE 208 592 208 528
WIRE 624 592 624 528
WIRE 864 592 864 528
WIRE 1104 592 1104 528
WIRE -1552 640 -1936 640
WIRE -1472 640 -1472 496
WIRE -1472 640 -1552 640
WIRE -1424 640 -1472 640
WIRE -1280 640 -1280 496
WIRE -1280 640 -1344 640
WIRE -1216 640 -1280 640
WIRE -1152 640 -1152 496
WIRE -1152 640 -1216 640
WIRE -1104 640 -1152 640
WIRE -960 640 -960 496
WIRE -960 640 -1024 640
WIRE -896 640 -960 640
WIRE -736 640 -896 640
WIRE -1936 704 -1936 640
WIRE -736 704 -736 640
WIRE -1552 720 -1552 640
WIRE -1216 720 -1216 640
WIRE -896 720 -896 640
WIRE -256 736 -256 672
WIRE 48 736 48 672
WIRE 208 736 208 656
WIRE 624 736 624 656
WIRE 864 736 864 672
WIRE 1104 736 1104 672
WIRE -1936 848 -1936 784
WIRE -736 848 -736 784
WIRE 48 864 -256 864
WIRE 208 864 48 864
WIRE 288 864 208 864
WIRE 480 864 352 864
WIRE 624 864 560 864
WIRE 864 864 624 864
WIRE 1104 864 864 864
WIRE -256 928 -256 864
WIRE 48 928 48 864
WIRE 208 928 208 864
WIRE 624 928 624 864
WIRE 864 928 864 864
WIRE 1104 928 1104 864
WIRE -256 1072 -256 1008
WIRE 48 1072 48 1008
WIRE 208 1072 208 992
WIRE 624 1072 624 992
WIRE 864 1072 864 1008
WIRE 1104 1072 1104 1008
FLAG 0 208 0
FLAG 208 208 0
FLAG 416 208 0
FLAG 624 208 0
FLAG 832 208 0
FLAG -256 736 0
FLAG 208 736 0
FLAG 624 736 0
FLAG 1104 736 0
FLAG 48 736 0
FLAG 864 736 0
FLAG -256 1072 0
FLAG 208 1072 0
FLAG 624 1072 0
FLAG 1104 1072 0
FLAG 48 1072 0
FLAG 864 1072 0
FLAG -1936 240 0
FLAG -1552 176 0
FLAG -1216 176 0
FLAG -896 176 0
FLAG -736 240 0
FLAG -1936 848 0
FLAG -1552 784 0
FLAG -1216 784 0
FLAG -896 784 0
FLAG -736 848 0
SYMBOL voltage 0 48 R0
WINDOW 123 40 48 Left 2
WINDOW 39 39 77 Left 2
SYMATTR Value2 AC 1 0
SYMATTR SpiceLine Rser=50.00
SYMATTR InstName V1
SYMATTR Value ""
SYMBOL cap 192 64 R0
SYMATTR InstName C1
SYMATTR Value 220.0p
SYMBOL ind 256 16 R270
WINDOW 0 32 56 VTop 2
WINDOW 3 5 56 VBottom 2
SYMATTR InstName L2
SYMATTR Value 680.0n
SYMBOL cap 400 64 R0
SYMATTR InstName C3
SYMATTR Value 390.0p
SYMBOL ind 464 16 R270
WINDOW 0 32 56 VTop 2
WINDOW 3 5 56 VBottom 2
SYMATTR InstName L4
SYMATTR Value 680.0n
SYMBOL cap 608 64 R0
SYMATTR InstName C5
SYMATTR Value 220.0p
SYMBOL res 816 48 R0
SYMATTR InstName RL
SYMATTR Value 50
SYMBOL voltage -256 576 R0
WINDOW 123 40 48 Left 2
WINDOW 39 39 77 Left 2
SYMATTR Value2 AC 1 0
SYMATTR SpiceLine Rser=50.00
SYMATTR InstName V2
SYMATTR Value ""
SYMBOL cap 192 592 R0
SYMATTR InstName C2
SYMATTR Value 1nF
SYMBOL ind 464 544 R270
WINDOW 0 32 56 VTop 2
WINDOW 3 5 56 VBottom 2
SYMATTR InstName L3
SYMATTR Value 3.3µH
SYMBOL cap 608 592 R0
SYMATTR InstName C6
SYMATTR Value 1nF
SYMBOL res 1088 576 R0
SYMATTR InstName RL1
SYMATTR Value 50
SYMBOL ind 64 688 R180
WINDOW 0 36 80 Left 2
WINDOW 3 36 40 Left 2
SYMATTR InstName L5
SYMATTR Value 680.0n
SYMBOL ind 880 688 R180
WINDOW 0 36 80 Left 2
WINDOW 3 36 40 Left 2
SYMATTR InstName L6
SYMATTR Value 680.0n
SYMBOL cap 352 512 R90
WINDOW 0 0 32 VBottom 2
WINDOW 3 32 32 VTop 2
SYMATTR InstName C4
SYMATTR Value 200pF
SYMBOL voltage -256 912 R0
WINDOW 123 40 48 Left 2
WINDOW 39 39 77 Left 2
SYMATTR Value2 AC 1 0
SYMATTR SpiceLine Rser=50.00
SYMATTR InstName V3
SYMATTR Value ""
SYMBOL cap 192 928 R0
SYMATTR InstName C7
SYMATTR Value 680pF
SYMBOL ind 464 880 R270
WINDOW 0 32 56 VTop 2
WINDOW 3 5 56 VBottom 2
SYMATTR InstName L1
SYMATTR Value 1.8µH
SYMBOL cap 608 928 R0
SYMATTR InstName C8
SYMATTR Value 680pF
SYMBOL res 1088 912 R0
SYMATTR InstName RL2
SYMATTR Value 50
SYMBOL ind 64 1024 R180
WINDOW 0 36 80 Left 2
WINDOW 3 36 40 Left 2
SYMATTR InstName L7
SYMATTR Value 270nH
SYMBOL ind 880 1024 R180
WINDOW 0 36 80 Left 2
WINDOW 3 36 40 Left 2
SYMATTR InstName L8
SYMATTR Value 270nH
SYMBOL cap 352 848 R90
WINDOW 0 0 32 VBottom 2
WINDOW 3 32 32 VTop 2
SYMATTR InstName C9
SYMATTR Value 100pF
SYMBOL voltage -1936 80 R0
WINDOW 123 40 48 Left 2
WINDOW 39 39 77 Left 2
SYMATTR Value2 AC 1 0
SYMATTR SpiceLine Rser=50.00
SYMATTR InstName V4
SYMATTR Value ""
SYMBOL cap -1568 112 R0
SYMATTR InstName C10
SYMATTR Value 390pF
SYMBOL cap -1232 112 R0
SYMATTR InstName C11
SYMATTR Value 560pF
SYMBOL cap -912 112 R0
SYMATTR InstName C12
SYMATTR Value 180pF
SYMBOL ind -1440 48 R270
WINDOW 0 32 56 VTop 2
WINDOW 3 5 56 VBottom 2
SYMATTR InstName L9
SYMATTR Value 1µH
SYMBOL ind -1120 48 R270
WINDOW 0 32 56 VTop 2
WINDOW 3 5 56 VBottom 2
SYMATTR InstName L10
SYMATTR Value 560nH
SYMBOL cap -1344 -128 R90
WINDOW 0 0 32 VBottom 2
WINDOW 3 32 32 VTop 2
SYMATTR InstName C13
SYMATTR Value 82pF
SYMBOL cap -1024 -128 R90
WINDOW 0 0 32 VBottom 2
WINDOW 3 32 32 VTop 2
SYMATTR InstName C14
SYMATTR Value 390pF
SYMBOL res -752 80 R0
SYMATTR InstName RL3
SYMATTR Value 50
SYMBOL voltage -1936 688 R0
WINDOW 123 40 48 Left 2
WINDOW 39 39 77 Left 2
SYMATTR Value2 AC 1 0
SYMATTR SpiceLine Rser=50.00
SYMATTR InstName V5
SYMATTR Value ""
SYMBOL cap -1568 720 R0
SYMATTR InstName C15
SYMATTR Value 220pF
SYMBOL cap -1232 720 R0
SYMATTR InstName C16
SYMATTR Value 330pF
SYMBOL cap -912 720 R0
SYMATTR InstName C17
SYMATTR Value 150pF
SYMBOL ind -1440 656 R270
WINDOW 0 32 56 VTop 2
WINDOW 3 5 56 VBottom 2
SYMATTR InstName L11
SYMATTR Value 470nH
SYMBOL ind -1120 656 R270
WINDOW 0 32 56 VTop 2
WINDOW 3 5 56 VBottom 2
SYMATTR InstName L12
SYMATTR Value 270nH
SYMBOL cap -1344 480 R90
WINDOW 0 0 32 VBottom 2
WINDOW 3 32 32 VTop 2
SYMATTR InstName C18
SYMATTR Value 47pF
SYMBOL cap -1024 480 R90
WINDOW 0 0 32 VBottom 2
WINDOW 3 32 32 VTop 2
SYMATTR InstName C19
SYMATTR Value 220pF
SYMBOL res -752 688 R0
SYMATTR InstName RL4
SYMATTR Value 50
TEXT 16 -288 Left 2 !.ac dec 1001 1.000Meg 40Meg
TEXT 16 -240 Left 2 !.net I(RL) V1
TEXT 480 -288 Left 2 ;5th Order Chebyshev Lowpass\nShunt First\nCutoff Frequency = 15 MHz\nPassband Ripple = .1 dB\n\nrf-tools.com | Oct 18 2021 13:42
TEXT 1344 752 Left 2 ;Magnis Bandpass
