Version 4
SHEET 1 2436 768
WIRE -256 -1376 -400 -1376
WIRE -256 -1296 -256 -1376
WIRE -400 -1280 -400 -1376
WIRE -256 -1168 -256 -1216
WIRE -112 -1168 -256 -1168
WIRE 336 -1168 -48 -1168
WIRE 688 -1168 336 -1168
WIRE 848 -1168 752 -1168
WIRE 336 -1120 336 -1168
WIRE 848 -1120 848 -1168
WIRE 336 -992 336 -1040
WIRE 848 -992 848 -1040
WIRE -208 -768 -352 -768
WIRE -208 -688 -208 -768
WIRE 1264 -688 1120 -688
WIRE -352 -672 -352 -768
WIRE 1264 -608 1264 -688
WIRE 1120 -592 1120 -688
WIRE -208 -560 -208 -608
WIRE -64 -560 -208 -560
WIRE 128 -560 0 -560
WIRE 288 -560 208 -560
WIRE 384 -560 288 -560
WIRE 448 -560 384 -560
WIRE 736 -560 528 -560
WIRE 896 -560 800 -560
WIRE 288 -512 288 -560
WIRE 384 -512 384 -560
WIRE 896 -512 896 -560
WIRE 1264 -480 1264 -528
WIRE 1760 -480 1264 -480
WIRE 1920 -480 1760 -480
WIRE 2144 -480 2000 -480
WIRE 2368 -480 2144 -480
WIRE 1760 -432 1760 -480
WIRE 2144 -432 2144 -480
WIRE 2368 -432 2368 -480
WIRE 288 -384 288 -432
WIRE 384 -384 384 -432
WIRE 896 -384 896 -432
WIRE 1760 -304 1760 -352
WIRE 2144 -304 2144 -352
WIRE 2368 -304 2368 -352
WIRE -192 -96 -336 -96
WIRE 1216 -80 1072 -80
WIRE -192 -16 -192 -96
WIRE -336 0 -336 -96
WIRE 1216 0 1216 -80
WIRE 1072 16 1072 -80
WIRE -192 112 -192 64
WIRE 144 112 -192 112
WIRE 304 112 224 112
WIRE 464 112 304 112
WIRE 912 112 544 112
WIRE 1216 128 1216 80
WIRE 1712 128 1216 128
WIRE 1872 128 1712 128
WIRE 2096 128 1952 128
WIRE 2320 128 2096 128
WIRE 304 160 304 112
WIRE 912 160 912 112
WIRE 1712 176 1712 128
WIRE 2096 176 2096 128
WIRE 2320 176 2320 128
WIRE 304 288 304 240
WIRE 912 288 912 240
WIRE 1712 304 1712 256
WIRE 2096 304 2096 256
WIRE 2320 304 2320 256
FLAG -352 -672 0
FLAG 288 -384 0
FLAG 384 -384 0
FLAG 896 -384 0
FLAG -336 0 0
FLAG 304 288 0
FLAG 912 288 0
FLAG 1120 -592 0
FLAG 1760 -304 0
FLAG 2368 -304 0
FLAG 2144 -304 0
FLAG 1072 16 0
FLAG 1712 304 0
FLAG 2320 304 0
FLAG 2096 304 0
FLAG -400 -1280 0
FLAG 336 -992 0
FLAG 848 -992 0
SYMBOL ind2 368 -416 M180
WINDOW 0 -42 68 Left 2
WINDOW 3 -55 43 Left 2
SYMATTR InstName L4
SYMATTR Value .39µH
SYMATTR Type ind
SYMBOL voltage -208 -592 R180
WINDOW 123 24 96 Left 2
WINDOW 39 24 124 Left 2
WINDOW 3 46 103 Left 2
SYMATTR Value2 AC 1
SYMATTR SpiceLine Rser=0
SYMATTR Value ""
SYMATTR InstName V2
SYMBOL cap 0 -576 R90
WINDOW 0 0 32 VBottom 2
WINDOW 3 32 32 VTop 2
SYMATTR InstName C2
SYMATTR Value 5.6n
SYMBOL res 224 -576 R90
WINDOW 0 0 56 VBottom 2
WINDOW 3 32 56 VTop 2
SYMATTR InstName R1
SYMATTR Value 27
SYMBOL res 304 -416 R180
WINDOW 0 36 76 Left 2
WINDOW 3 36 40 Left 2
SYMATTR InstName R2
SYMATTR Value 270
SYMBOL res 432 -544 R270
WINDOW 0 32 56 VTop 2
WINDOW 3 0 56 VBottom 2
SYMATTR InstName R5
SYMATTR Value 27
SYMBOL res 880 -528 R0
SYMATTR InstName R6
SYMATTR Value 50
SYMBOL cap 800 -576 R90
WINDOW 0 0 32 VBottom 2
WINDOW 3 32 32 VTop 2
SYMATTR InstName C1
SYMATTR Value 5.6n
SYMBOL voltage -192 80 R180
WINDOW 123 24 96 Left 2
WINDOW 39 24 124 Left 2
WINDOW 3 24 68 Left 2
SYMATTR SpiceLine Rser=0
SYMATTR Value 10
SYMATTR InstName V1
SYMBOL res 240 96 R90
WINDOW 0 0 56 VBottom 2
WINDOW 3 32 56 VTop 2
SYMATTR InstName R3
SYMATTR Value 13.76
SYMBOL res 320 256 R180
WINDOW 0 36 76 Left 2
WINDOW 3 36 40 Left 2
SYMATTR InstName R4
SYMATTR Value 83.95
SYMBOL res 448 128 R270
WINDOW 0 32 56 VTop 2
WINDOW 3 0 56 VBottom 2
SYMATTR InstName R7
SYMATTR Value 13.76
SYMBOL res 896 144 R0
SYMATTR InstName R8
SYMATTR Value 50
SYMBOL voltage 1264 -512 R180
WINDOW 123 24 96 Left 2
WINDOW 39 24 124 Left 2
WINDOW 3 24 68 Left 2
SYMATTR Value 10
SYMATTR InstName V3
SYMBOL res 1776 -336 R180
WINDOW 0 36 76 Left 2
WINDOW 3 36 40 Left 2
SYMATTR InstName R10
SYMATTR Value 292.4
SYMBOL res 1904 -464 R270
WINDOW 0 32 56 VTop 2
WINDOW 3 0 56 VBottom 2
SYMATTR InstName R11
SYMATTR Value 17.615
SYMBOL res 2352 -448 R0
SYMATTR InstName R12
SYMATTR Value 50
SYMBOL res 2128 -448 R0
SYMATTR InstName R9
SYMATTR Value 292.4
SYMBOL voltage 1216 96 R180
WINDOW 123 24 96 Left 2
WINDOW 39 24 124 Left 2
WINDOW 3 24 68 Left 2
SYMATTR Value 10
SYMATTR InstName V4
SYMBOL res 1728 272 R180
WINDOW 0 36 76 Left 2
WINDOW 3 36 40 Left 2
SYMATTR InstName R13
SYMATTR Value 181.66
SYMBOL res 1856 144 R270
WINDOW 0 32 56 VTop 2
WINDOW 3 0 56 VBottom 2
SYMATTR InstName R14
SYMATTR Value 29.78
SYMBOL res 2304 160 R0
SYMATTR InstName R15
SYMATTR Value 50
SYMBOL res 2080 160 R0
SYMATTR InstName R16
SYMATTR Value 181.66
SYMBOL ind2 320 -1024 M180
WINDOW 0 -42 68 Left 2
WINDOW 3 -55 43 Left 2
SYMATTR InstName L1
SYMATTR Value .39µH
SYMATTR Type ind
SYMBOL voltage -256 -1200 R180
WINDOW 123 24 96 Left 2
WINDOW 39 24 124 Left 2
WINDOW 3 46 103 Left 2
SYMATTR Value2 AC 1
SYMATTR SpiceLine Rser=0
SYMATTR Value ""
SYMATTR InstName V5
SYMBOL cap -48 -1184 R90
WINDOW 0 0 32 VBottom 2
WINDOW 3 32 32 VTop 2
SYMATTR InstName C3
SYMATTR Value 5.6n
SYMBOL res 832 -1136 R0
SYMATTR InstName R20
SYMATTR Value 50
SYMBOL cap 752 -1184 R90
WINDOW 0 0 32 VBottom 2
WINDOW 3 32 32 VTop 2
SYMATTR InstName C4
SYMATTR Value 5.6n
TEXT 72 -744 Left 2 !.ac dec 400 1Meg 100Meg
TEXT 88 -72 Left 2 !;ac dec 400 600000 200000000
TEXT 104 -120 Left 2 !;tran 0 1 0
TEXT 24 -1352 Left 2 !;ac dec 400 600000 200000000
