Version 4
SHEET 1 2456 1312
WIRE -112 -96 -192 -96
WIRE -192 -48 -192 -96
WIRE 1328 -48 1248 -48
WIRE -192 -32 -192 -48
WIRE -368 0 -512 0
WIRE 1248 0 1248 -48
WIRE 1248 16 1248 0
WIRE 1072 48 928 48
WIRE -368 80 -368 0
WIRE -512 96 -512 0
WIRE -112 96 -112 -96
WIRE 480 128 336 128
WIRE 1072 128 1072 48
WIRE 928 144 928 48
WIRE 1328 144 1328 -48
WIRE 112 160 112 32
WIRE 112 160 0 160
WIRE 272 160 112 160
WIRE 336 160 336 128
WIRE -368 208 -368 160
WIRE -224 208 -368 208
WIRE -112 208 -112 176
WIRE -112 208 -160 208
WIRE -64 208 -112 208
WIRE 1712 208 1440 208
WIRE 1968 208 1824 208
WIRE -112 240 -112 208
WIRE 1824 240 1824 208
WIRE 336 256 336 240
WIRE 480 256 480 208
WIRE 1072 256 1072 208
WIRE 1216 256 1072 256
WIRE 1328 256 1328 224
WIRE 1328 256 1280 256
WIRE 1376 256 1328 256
WIRE 1328 288 1328 256
WIRE 1712 288 1712 208
WIRE 0 304 0 256
WIRE 96 304 0 304
WIRE 0 336 0 304
WIRE 96 336 96 304
WIRE 1824 336 1824 320
WIRE 1968 336 1968 288
WIRE 1968 336 1824 336
WIRE 2128 336 1968 336
WIRE 272 352 272 240
WIRE 1824 352 1824 336
WIRE 272 368 272 352
WIRE 1440 368 1440 304
WIRE 2128 368 2128 336
WIRE -112 400 -112 320
WIRE 1968 400 1968 336
WIRE 96 432 96 400
WIRE 1328 448 1328 368
WIRE 0 464 0 416
WIRE 1440 480 1440 448
WIRE 1536 480 1440 480
WIRE 1824 480 1824 432
WIRE 1968 480 1824 480
WIRE 1440 512 1440 480
WIRE 1536 512 1536 480
WIRE 1712 528 1712 368
WIRE 96 544 96 512
WIRE 1536 608 1536 576
WIRE 1440 640 1440 592
WIRE -64 656 -144 656
WIRE -144 704 -144 656
WIRE -144 720 -144 704
WIRE 1536 720 1536 688
WIRE -320 752 -464 752
WIRE 176 800 -64 800
WIRE -320 832 -320 752
WIRE 528 832 384 832
WIRE -464 848 -464 752
WIRE -64 848 -64 800
WIRE 384 864 384 832
WIRE 176 912 176 800
WIRE 176 912 48 912
WIRE 320 912 176 912
WIRE -320 960 -320 912
WIRE -176 960 -320 960
WIRE -64 960 -64 928
WIRE -64 960 -112 960
WIRE -16 960 -64 960
WIRE 384 976 384 944
WIRE 464 976 384 976
WIRE 528 976 528 912
WIRE 528 976 464 976
WIRE -64 992 -64 960
WIRE 464 1024 464 976
WIRE 48 1056 48 1008
WIRE 144 1056 48 1056
WIRE 48 1088 48 1056
WIRE 144 1088 144 1056
WIRE 320 1104 320 992
WIRE 320 1120 320 1104
WIRE -64 1152 -64 1072
WIRE 144 1168 144 1152
WIRE 48 1216 48 1168
WIRE 144 1296 144 1248
FLAG -512 96 0
FLAG 272 432 0
FLAG 96 544 0
FLAG 0 464 0
FLAG -192 32 0
FLAG -112 400 0
FLAG -464 848 0
FLAG 320 1184 0
FLAG 144 1296 0
FLAG 48 1216 0
FLAG -144 784 0
FLAG -64 1152 0
FLAG 464 1024 0
FLAG 336 256 0
FLAG 480 256 0
FLAG 928 144 0
FLAG 1536 720 0
FLAG 1440 640 0
FLAG 1248 80 0
FLAG 1328 448 0
FLAG 1712 608 0
FLAG 2128 448 0
SYMBOL ind2 256 256 M180
WINDOW 0 -42 68 Left 2
WINDOW 3 -55 43 Left 2
SYMATTR InstName L1
SYMATTR Value 50µH
SYMATTR Type ind
SYMBOL ind2 352 256 R180
WINDOW 0 -61 87 Left 2
WINDOW 3 -85 64 Left 2
SYMATTR InstName L2
SYMATTR Value 8.75µH
SYMATTR Type ind
SYMBOL res 464 112 R0
WINDOW 0 36 47 Left 2
SYMATTR InstName R1
SYMATTR Value 50
SYMBOL voltage -368 176 R180
WINDOW 123 24 96 Left 2
WINDOW 39 24 124 Left 2
WINDOW 3 24 -4 Left 2
SYMATTR Value2 AC 1
SYMATTR SpiceLine Rser=.1
SYMATTR Value SINE(0 .05 10Meg)
SYMATTR InstName V1
SYMBOL cap -160 192 R90
WINDOW 0 0 32 VBottom 2
WINDOW 3 32 32 VTop 2
SYMATTR InstName C1
SYMATTR Value 100n
SYMBOL npn -64 160 R0
SYMATTR InstName Q1
SYMATTR Value 2N2222
SYMBOL voltage 272 336 R0
WINDOW 123 0 0 Left 0
WINDOW 39 0 0 Left 0
SYMATTR InstName V2
SYMATTR Value 12
SYMBOL res -16 320 R0
SYMATTR InstName R3
SYMATTR Value 56
SYMBOL res 80 416 R0
SYMATTR InstName R4
SYMATTR Value 0
SYMBOL cap 80 336 R0
SYMATTR InstName C2
SYMATTR Value 1nF
SYMBOL res -128 224 R0
SYMATTR InstName R5
SYMATTR Value 475
SYMBOL res -128 80 R0
SYMATTR InstName R6
SYMATTR Value 2.21k
SYMBOL voltage -192 -64 R0
WINDOW 123 0 0 Left 0
WINDOW 39 0 0 Left 0
SYMATTR InstName V3
SYMATTR Value 12
SYMBOL ind2 304 1008 M180
WINDOW 0 -42 68 Left 2
WINDOW 3 -55 43 Left 2
SYMATTR InstName L4
SYMATTR Value 52µH
SYMATTR Type ind
SYMBOL ind2 400 960 R180
WINDOW 0 -61 87 Left 2
WINDOW 3 -85 64 Left 2
SYMATTR InstName L5
SYMATTR Value 13µH
SYMATTR Type ind
SYMBOL res 512 816 R0
WINDOW 0 36 47 Left 2
SYMATTR InstName R7
SYMATTR Value 50
SYMBOL voltage -320 928 R180
WINDOW 123 24 96 Left 2
WINDOW 39 24 124 Left 2
WINDOW 3 24 -4 Left 2
SYMATTR Value2 AC 1
SYMATTR SpiceLine Rser=.1
SYMATTR Value SINE(0 .01 14Meg)
SYMATTR InstName V4
SYMBOL cap -112 944 R90
WINDOW 0 0 32 VBottom 2
WINDOW 3 32 32 VTop 2
SYMATTR InstName C3
SYMATTR Value 100n
SYMBOL npn -16 912 R0
SYMATTR InstName Q2
SYMATTR Value 2N2222
SYMBOL voltage 320 1088 R0
WINDOW 123 0 0 Left 0
WINDOW 39 0 0 Left 0
SYMATTR InstName V5
SYMATTR Value 12
SYMBOL res 32 1072 R0
SYMATTR InstName R9
SYMATTR Value 56
SYMBOL cap 128 1088 R0
SYMATTR InstName C4
SYMATTR Value 2.2nF
SYMBOL res -80 976 R0
SYMATTR InstName R11
SYMATTR Value 475
SYMBOL res -80 832 R0
SYMATTR InstName R12
SYMATTR Value 2.21k
SYMBOL voltage -144 688 R0
WINDOW 123 0 0 Left 0
WINDOW 39 0 0 Left 0
SYMATTR InstName V6
SYMATTR Value 12
SYMBOL res 128 1152 R0
SYMATTR InstName R8
SYMATTR Value 0
SYMBOL ind2 1696 384 M180
WINDOW 0 -28 80 Left 2
WINDOW 3 -39 59 Left 2
SYMATTR InstName L3
SYMATTR Value 9µH
SYMATTR Type ind
SYMBOL ind2 1840 336 R180
WINDOW 0 36 80 Left 2
WINDOW 3 36 40 Left 2
SYMATTR InstName L6
SYMATTR Value 2.25µH
SYMATTR Type ind
SYMBOL ind2 1840 448 R180
WINDOW 0 36 80 Left 2
WINDOW 3 36 40 Left 2
SYMATTR InstName L7
SYMATTR Value 2.25µH
SYMATTR Type ind
SYMBOL res 1952 192 R0
WINDOW 0 36 47 Left 2
SYMATTR InstName R2
SYMATTR Value 220
SYMBOL res 1952 384 R0
WINDOW 0 36 43 Left 2
SYMATTR InstName R10
SYMATTR Value 220
SYMBOL voltage 1072 224 R180
WINDOW 123 24 96 Left 2
WINDOW 39 24 124 Left 2
WINDOW 3 24 -4 Left 2
SYMATTR SpiceLine Rser=.1
SYMATTR Value SINE(0 .1 14Meg)
SYMATTR InstName V7
SYMBOL cap 1280 240 R90
WINDOW 0 0 32 VBottom 2
WINDOW 3 32 32 VTop 2
SYMATTR InstName C5
SYMATTR Value 100n
SYMBOL npn 1376 208 R0
SYMATTR InstName Q3
SYMATTR Value 2N2222
SYMBOL res 1424 496 R0
SYMATTR InstName R14
SYMATTR Value 100
SYMBOL res 1520 592 R0
SYMATTR InstName R15
SYMATTR Value 200
SYMBOL cap 1520 512 R0
SYMATTR InstName C6
SYMATTR Value 1nF
SYMBOL res 1312 272 R0
SYMATTR InstName R16
SYMATTR Value 475
SYMBOL res 1312 128 R0
SYMATTR InstName R17
SYMATTR Value 2.21k
SYMBOL voltage 1248 -16 R0
WINDOW 123 0 0 Left 0
WINDOW 39 0 0 Left 0
SYMATTR InstName V9
SYMATTR Value 12
SYMBOL voltage 1712 512 R0
WINDOW 123 0 0 Left 0
WINDOW 39 0 0 Left 0
SYMATTR InstName V8
SYMATTR Value 12
SYMBOL voltage 2128 352 R0
WINDOW 123 0 0 Left 0
WINDOW 39 0 0 Left 0
SYMATTR InstName V10
SYMATTR Value 2.7
SYMBOL res 1424 352 R0
SYMATTR InstName R13
SYMATTR Value .1
TEXT 328 104 Left 2 !K1 L1 L2 1
TEXT -712 272 Left 2 !; .ac oct 401 3Meg 30Meg
TEXT -688 232 Left 2 !.tran .000001
TEXT 376 808 Left 2 !K2 L4 L5 1
TEXT 1832 120 Right 2 !K101 L7 L6 L3 1
