Version 4
SHEET 1 3352 832
WIRE -416 -992 -560 -992
WIRE -416 -912 -416 -992
WIRE -560 -896 -560 -992
WIRE -416 -768 -416 -832
WIRE -416 -768 -672 -768
WIRE -192 -768 -416 -768
WIRE -672 -640 -672 -768
WIRE -560 -640 -672 -640
WIRE -192 -640 -192 -768
WIRE 16 -640 -192 -640
WIRE -496 -560 -496 -592
WIRE -400 -560 -496 -560
WIRE 16 -560 16 -640
WIRE 144 -560 16 -560
WIRE -400 -528 -400 -560
WIRE 192 -480 16 -480
WIRE 256 -480 240 -480
WIRE 432 -480 256 -480
WIRE 688 -480 432 -480
WIRE 432 -432 432 -480
WIRE 144 -416 144 -560
WIRE 800 -368 672 -368
WIRE 16 -336 16 -480
WIRE 96 -336 16 -336
WIRE 240 -336 144 -336
WIRE 800 -320 800 -368
WIRE 672 -304 672 -368
WIRE 144 -288 144 -320
WIRE 432 -288 432 -352
WIRE 432 -288 352 -288
WIRE -544 -272 -544 -592
WIRE -400 -272 -400 -448
WIRE -400 -272 -544 -272
WIRE 432 -272 432 -288
WIRE 240 -240 240 -336
WIRE 288 -240 240 -240
WIRE 976 -208 848 -208
WIRE 432 -192 352 -192
WIRE 976 -160 976 -208
WIRE 848 -144 848 -208
WIRE 432 -128 432 -192
WIRE -1392 -96 -1856 -96
WIRE -192 -96 -192 -640
WIRE -192 -96 -1392 -96
WIRE -688 16 -1088 16
WIRE -192 16 -192 -96
WIRE -192 16 -560 16
WIRE 528 80 160 80
WIRE 912 80 608 80
WIRE -1088 160 -1088 16
WIRE -144 160 -288 160
WIRE 112 160 -144 160
WIRE -288 192 -288 160
WIRE -1856 208 -1856 -96
WIRE 912 208 912 80
WIRE 1120 224 1024 224
WIRE -688 240 -688 16
WIRE -688 240 -928 240
WIRE -560 240 -560 16
WIRE -400 240 -560 240
WIRE 1024 272 1024 224
WIRE 1120 272 1120 224
WIRE -1472 288 -1696 288
WIRE -1088 288 -1088 240
WIRE -1088 288 -1200 288
WIRE -992 288 -1088 288
WIRE -288 288 -288 272
WIRE -144 288 -144 240
WIRE -144 288 -288 288
WIRE 672 288 672 -224
WIRE 672 288 -144 288
WIRE 688 288 672 288
WIRE -288 304 -288 288
WIRE 848 304 848 -64
WIRE 912 304 912 288
WIRE 912 304 848 304
WIRE -1392 320 -1392 -96
WIRE -1264 320 -1264 288
WIRE 912 320 912 304
WIRE -2000 336 -2368 336
WIRE -1856 336 -1856 288
WIRE -1856 336 -1936 336
WIRE -1760 336 -1856 336
WIRE -1088 336 -1088 288
WIRE -2368 352 -2368 336
WIRE -928 352 -928 336
WIRE -880 352 -928 352
WIRE -144 352 -144 288
WIRE 400 352 160 352
WIRE -688 368 -688 240
WIRE -400 368 -400 320
WIRE -400 368 -688 368
WIRE -1856 384 -1856 336
WIRE -928 384 -928 352
WIRE -816 384 -816 352
WIRE -1696 400 -1696 384
WIRE -1648 400 -1696 400
WIRE 1024 416 1024 352
WIRE -1696 432 -1696 400
WIRE -1584 432 -1584 400
WIRE -1264 432 -1264 400
WIRE -288 432 -288 384
WIRE -144 432 -288 432
WIRE 112 432 -144 432
WIRE -1472 448 -1472 288
WIRE -1392 448 -1392 400
WIRE -1392 448 -1472 448
WIRE -2368 480 -2368 432
WIRE -928 480 -928 464
WIRE -816 480 -816 464
WIRE -816 480 -928 480
WIRE -928 496 -928 480
WIRE 400 496 400 352
WIRE 608 496 400 496
WIRE 912 496 912 400
WIRE 912 496 688 496
WIRE -672 512 -672 480
WIRE -1696 528 -1696 512
WIRE -1584 528 -1584 512
WIRE -1584 528 -1696 528
WIRE -1696 544 -1696 528
WIRE -672 608 -672 592
FLAG -560 -896 0
FLAG 144 -208 0
FLAG 432 -128 0
FLAG -2368 480 0
FLAG -1088 416 0
FLAG -928 496 0
FLAG 160 256 0
FLAG 160 528 0
FLAG 1120 272 0
FLAG 1024 496 0
FLAG 976 -160 0
FLAG 688 352 0
FLAG 800 -320 0
FLAG -1856 464 0
FLAG -1696 544 0
FLAG -1264 432 0
SYMBOL voltage -416 -816 R180
WINDOW 123 0 0 Left 0
WINDOW 39 24 124 Left 2
WINDOW 3 46 103 Left 2
SYMATTR SpiceLine Rser=0
SYMATTR Value 12
SYMATTR InstName V2
SYMBOL diode 192 -464 R270
WINDOW 0 32 32 VTop 2
WINDOW 3 0 32 VBottom 2
SYMATTR InstName D1
SYMBOL nmos 96 -416 R0
SYMATTR InstName M1
SYMATTR Value 2N7002
SYMBOL res 0 -576 R0
SYMATTR InstName R5
SYMATTR Value 2.2k
SYMBOL res 128 -304 R0
SYMATTR InstName R6
SYMATTR Value 33.2
SYMBOL res 416 -448 R0
SYMATTR InstName R7
SYMATTR Value 2.21k
SYMBOL res 416 -288 R0
SYMATTR InstName R8
SYMATTR Value 22.1k
SYMBOL npn 288 -288 R0
SYMATTR InstName Q2
SYMBOL sw -576 -640 R270
SYMATTR InstName S1
SYMATTR Value MYSW
SYMBOL voltage -400 -544 R0
WINDOW 123 0 0 Left 0
WINDOW 39 0 0 Left 0
SYMATTR InstName V1
SYMATTR Value PULSE(0 2 .5 .001 .001 1 2)
SYMBOL voltage -2368 336 R0
WINDOW 123 0 0 Left 0
WINDOW 39 24 124 Left 2
SYMATTR SpiceLine Rser=50
SYMATTR InstName V3
SYMATTR Value SINE(0 .08 14000000)
SYMBOL ind2 -416 336 M180
WINDOW 0 36 80 Left 2
WINDOW 3 36 40 Left 2
SYMATTR InstName L1
SYMATTR Value 9µH
SYMATTR Type ind
SYMBOL ind2 -272 288 R180
WINDOW 0 36 80 Left 2
WINDOW 3 36 40 Left 2
SYMATTR InstName L2
SYMATTR Value 2.25µH
SYMATTR Type ind
SYMBOL ind2 -272 400 R180
WINDOW 0 36 80 Left 2
WINDOW 3 36 40 Left 2
SYMATTR InstName L3
SYMATTR Value 2.25µH
SYMATTR Type ind
SYMBOL res -160 144 R0
WINDOW 0 36 47 Left 2
SYMATTR InstName R1
SYMATTR Value 220
SYMBOL res -160 336 R0
WINDOW 0 36 43 Left 2
SYMATTR InstName R2
SYMATTR Value 220
SYMBOL res -1104 144 R0
SYMATTR InstName R4
SYMATTR Value 2.21k
SYMBOL res -1104 320 R0
SYMATTR InstName R9
SYMATTR Value 475
SYMBOL cap -1200 272 R90
WINDOW 0 0 32 VBottom 2
WINDOW 3 32 32 VTop 2
SYMATTR InstName C1
SYMATTR Value 100nF
SYMBOL res -944 368 R0
SYMATTR InstName R10
SYMATTR Value 56
SYMBOL nmos 112 80 R0
SYMATTR InstName M2
SYMATTR Value BS170
SYMATTR Prefix X
SYMBOL nmos 112 352 R0
SYMATTR InstName M3
SYMATTR Value BS170
SYMATTR Prefix X
SYMBOL res 144 160 R0
SYMATTR InstName R3
SYMATTR Value 2.2
SYMBOL res 144 432 R0
SYMATTR InstName R11
SYMATTR Value 2.2
SYMBOL ind2 1040 256 M0
SYMATTR InstName L4
SYMATTR Value 6.25µH
SYMATTR Type ind
SYMBOL ind2 896 304 R0
SYMATTR InstName L5
SYMATTR Value 2.25µH
SYMATTR Type ind
SYMBOL ind2 896 192 R0
SYMATTR InstName L6
SYMATTR Value 2.25µH
SYMATTR Type ind
SYMBOL res 1008 400 R0
SYMATTR InstName R12
SYMATTR Value 50
SYMBOL voltage 848 -48 R180
WINDOW 123 0 0 Left 0
WINDOW 39 24 124 Left 2
WINDOW 3 46 103 Left 2
SYMATTR SpiceLine Rser=0
SYMATTR Value 15
SYMATTR InstName V4
SYMBOL cap 704 352 R180
WINDOW 0 24 56 Left 2
WINDOW 3 24 8 Left 2
SYMATTR InstName C3
SYMATTR Value 100nF
SYMBOL cap -816 336 R90
WINDOW 0 0 32 VBottom 2
WINDOW 3 32 32 VTop 2
SYMATTR InstName C2
SYMATTR Value 100nF
SYMBOL res -832 368 R0
SYMATTR InstName R13
SYMATTR Value 10
SYMBOL voltage 672 -208 R180
WINDOW 123 0 0 Left 0
WINDOW 39 24 124 Left 2
WINDOW 3 46 103 Left 2
SYMATTR SpiceLine Rser=0
SYMATTR Value 5
SYMATTR InstName V5
SYMBOL npn -992 240 R0
SYMATTR InstName Q1
SYMATTR Value 2SC5706
SYMBOL res 624 64 R90
WINDOW 0 0 56 VBottom 2
WINDOW 3 32 56 VTop 2
SYMATTR InstName R14
SYMATTR Value .01
SYMBOL res 704 480 R90
WINDOW 0 0 56 VBottom 2
WINDOW 3 32 56 VTop 2
SYMATTR InstName R15
SYMATTR Value .01
SYMBOL res -1872 192 R0
SYMATTR InstName R16
SYMATTR Value 4.7k
SYMBOL res -1872 368 R0
SYMATTR InstName R17
SYMATTR Value 1k
SYMBOL res -1712 416 R0
SYMATTR InstName R18
SYMATTR Value 50
SYMBOL cap -1584 384 R90
WINDOW 0 0 32 VBottom 2
WINDOW 3 32 32 VTop 2
SYMATTR InstName C4
SYMATTR Value 100nF
SYMBOL res -1600 416 R0
SYMATTR InstName R19
SYMATTR Value 50
SYMBOL npn -1760 288 R0
SYMATTR InstName Q3
SYMATTR Value 2N3904
SYMBOL cap -1936 320 R90
WINDOW 0 0 32 VBottom 2
WINDOW 3 32 32 VTop 2
SYMATTR InstName C5
SYMATTR Value 100nF
SYMBOL ind2 -1408 416 M180
WINDOW 0 38 80 Left 2
WINDOW 3 37 56 Left 2
SYMATTR InstName L7
SYMATTR Value 200µH
SYMATTR Type ind
SYMBOL ind2 -1248 416 R180
WINDOW 0 -36 84 Left 2
WINDOW 3 -52 55 Left 2
SYMATTR InstName L8
SYMATTR Value 20µH
SYMATTR Type ind
TEXT -152 -104 Left 2 !.tran 0 .000110 .000109
TEXT -256 -784 Left 2 !.model MYSW SW(Ron=1 Roff=1Meg Vt=1 Vh=-0)
TEXT -488 416 Left 2 !K1 L1 L2 L3 1
TEXT 1016 440 Right 2 !K2 L4 L5 L6 1
TEXT 280 144 Left 2 !.include bs170.txt
TEXT -1016 104 Left 2 !.lib 2SC5706-SPICE-D.LIB
TEXT -1376 488 Left 2 !K3 L7 L8 1
